176
Lattice="15.99275112 0.0 0.0 -8.35216305 7.494046 0.0 0.0 0.0 35.0" Properties=species:S:1:pos:R:3:initial_magmoms:R:1 pbc="T T T"
V        3.78487826       1.36384715       7.69469866       0.00000000
V        8.87486673       6.37930669       7.74757466       0.00000000
V        6.34009061       3.88569175       7.73522820       0.00000000
V       -4.30166460       6.05093825       8.91036002       0.00000000
V        9.16016258       3.53212433       8.89831512       0.00000000
V        6.59330751       1.04706287       8.88801742       0.00000000
V       -1.77140490       3.94605567       8.88877776       0.00000000
V       11.70239693       1.44136343       8.85543988       0.00000000
V        0.80231722       6.47407798       8.89373646       0.00000000
V        1.18351885       3.50732254       8.79635120       0.00000000
V       14.56239483       1.08794928       7.76428481       0.00000000
V        3.66616053       6.04951973       7.81619885       0.00000000
V        3.71835392       1.40631574      12.29819430       0.00000000
V        8.81321805       6.40292669      12.29565820       0.00000000
V        6.26410386       3.90263559      12.29392395       0.00000000
V       -4.37930354       6.06639464      13.52639295       0.00000000
V        9.06614562       3.56877966      13.52335985       0.00000000
V        6.51980642       1.07092563      13.52800820       0.00000000
V       -1.67597547       3.88534660      13.52346485       0.00000000
V       11.76998096       1.38517511      13.52981595       0.00000000
V        0.87090930       6.38077234      13.52139180       0.00000000
V        1.12427784       3.54712105      12.29202100       0.00000000
V       14.57001035       1.04993473      12.29804905       0.00000000
V        3.67304078       6.04786119      12.29349030       0.00000000
O       -5.65357713       7.42323923       8.32367441       0.00000000
O        7.82978976       4.88958669       8.30926698       0.00000000
O        5.23964363       2.41421340       8.25943317       0.00000000
O        5.09787991       0.04565399       8.33394170       0.00000000
O       10.23364634       5.02438456       8.35319639       0.00000000
O        7.67011036       2.51208867       8.33573381       0.00000000
O       -0.17018052       4.88265554       8.39768430       0.00000000
O       13.19554307       2.46507412       8.30232658       0.00000000
O        2.27906808       7.44402689       8.28785398       0.00000000
O       -0.36307653       2.54195507       8.44472954       0.00000000
O       13.05370243       0.07981894       8.26540775       0.00000000
O        2.20909075       5.04356987       8.53566196       0.00000000
O       14.58245940       1.16241811       6.14665608       0.00000000
O        3.58787302       5.98270917       6.20282698       0.00000000
O       -1.86945513       4.05264549      10.49426640       0.00000000
O       11.61313851       1.55063654      10.45957535       0.00000000
O        0.70510974       6.62195502      10.49546666       0.00000000
O       -4.19691671       5.92517640      10.51147605       0.00000000
O        9.25573252       3.40192767      10.50088490       0.00000000
O        6.68642009       0.92544144      10.49067453       0.00000000
O       -2.98698740       5.03826645       8.15851165       0.00000000
O       10.42588925       2.49082135       8.12836514       0.00000000
O        7.82642708      -0.05708797       8.14995758       0.00000000
O        2.36719837       2.50675029       8.03600031       0.00000000
O       15.87114670      -0.03815408       8.20112034       0.00000000
O        5.03469226       4.99637979       8.24971067       0.00000000
O        3.84516590       1.27302159       6.08565230       0.00000000
O        8.92244025       6.34819846       6.13095056       0.00000000
O        6.38393743       3.89941037       6.11788138       0.00000000
O       -5.70271183       7.41448928      12.81344645       0.00000000
O        7.74355906       4.91474307      12.80251245       0.00000000
O        5.19568122       2.41787383      12.81340830       0.00000000
O        5.02086585       0.07287930      12.99667635       0.00000000
O       10.11446238       5.06911001      12.99256630       0.00000000
O        7.56711707       2.57018649      12.99240320       0.00000000
O       -0.17809953       4.88222528      12.98599925       0.00000000
O       13.26848070       2.38329698      12.99754225       0.00000000
O        2.37058845       7.38009116      12.99396315       0.00000000
O       -0.35319568       2.53668054      12.80941550       0.00000000
O       13.09366379       0.03830454      12.81451920       0.00000000
O        2.19351672       5.03537840      12.79988710       0.00000000
O        1.16201444       3.48958326      10.69724845       0.00000000
O       14.60403049       0.99782848      10.70345500       0.00000000
O        3.71683321       6.00183523      10.69875520       0.00000000
O       -1.58744441       3.81740730      15.10500355       0.00000000
O       11.85468062       1.31178427      15.11135185       0.00000000
O        0.95793501       6.30141916      15.10251330       0.00000000
O       -4.46415896       6.13552249      15.10805135       0.00000000
O        8.97719834       3.64491310      15.10451215       0.00000000
O        6.43521329       1.14452840      15.10948985       0.00000000
O       -3.02836464       4.97522010      13.14654985       0.00000000
O       10.41921585       2.47725185      13.15200320       0.00000000
O       -0.48054383       7.47384138      13.15073305       0.00000000
O        2.42088236       2.47826115      12.88738255       0.00000000
O        7.51601843       7.47274687      12.88763980       0.00000000
O        4.96861279       4.97526424      12.88511455       0.00000000
O        3.68175729       1.45626228      10.70372800       0.00000000
O        8.77984324       6.45728595      10.70093990       0.00000000
O        6.22107371       3.94779606      10.69911885       0.00000000
O        1.56386514       4.15686261       5.26292893       0.00000000
C       -1.84332708       6.29865612       3.68578035       0.00000000
C        2.60839064       0.42800032       3.43392956       0.00000000
C        1.12381342       2.34681026       3.62854877       0.00000000
C        0.18971595       0.09864847       3.38756163       0.00000000
C       -0.38890755       4.34359045       3.77691174       0.00000000
C       -1.29673389       2.05896038       3.52132424       0.00000000
C        5.40799047       7.27253750       3.41807134       0.00000000
C       -2.78275055       4.02028759       3.61909881       0.00000000
C       12.28138753       1.73967691       3.55556691       0.00000000
C        2.99301843       6.95554186       3.59188147       0.00000000
C       -4.26197127       5.97385975       3.54095305       0.00000000
C       10.79441990       3.69412975       3.58667844       0.00000000
C        9.86260834       1.41381946       3.66047826       0.00000000
C        0.58442112       6.62822169       3.79166350       0.00000000
C        9.31458560       5.64240324       3.42064138       0.00000000
C        8.37776410       3.36511286       3.51454422       0.00000000
C        7.44402335       1.08696746       3.62278641       0.00000000
C        6.89651230       5.31557129       3.35723784       0.00000000
C        5.96292579       3.03437954       3.40734891       0.00000000
C        5.02992871       0.75549549       3.48702547       0.00000000
C        4.48127534       4.98829289       3.44641349       0.00000000
C        3.54938511       2.71545570       3.52332771       0.00000000
C        2.10294257       4.67690839       3.96758922       0.00000000
C       -4.44038961       7.37967042       3.47390239       0.00000000
C        2.42290468       1.83443346       3.53407607       0.00000000
C       -6.85908228       7.05312313       3.38845416       0.00000000
C        0.92527172       3.75554684       3.97224037       0.00000000
C        0.01001775       1.50667945       3.49092222       0.00000000
C        6.71324679       6.72549292       3.36944013       0.00000000
C       -1.47956169       3.47301942       3.63124317       0.00000000
C       13.58358608       1.19455808       3.47555607       0.00000000
C        4.29813096       6.40643744       3.47450198       0.00000000
C       -2.96040737       5.42898158       3.63076840       0.00000000
C       12.09658903       3.14887101       3.59529709       0.00000000
C       11.16497796       0.87198643       3.60207253       0.00000000
C       -5.37878089       5.10260071       3.51969562       0.00000000
C        9.67799379       2.82354369       3.60226608       0.00000000
C        8.74573257       0.54318325       3.70920133       0.00000000
C        8.19880207       4.77235433       3.41584495       0.00000000
C        7.26374824       2.49138786       3.50371878       0.00000000
C        6.32702462       0.21401806       3.60314115       0.00000000
C        5.78259493       4.44347309       3.36206437       0.00000000
C        4.84844219       2.16558060       3.43622681       0.00000000
C        3.39487071       4.11341293       3.60402014       0.00000000
C        1.88587685       6.10982115       3.76260269       0.00000000
C       -0.54520776       5.74633222       3.79017377       0.00000000
C        3.82673354       1.17570798       0.05793305       0.00000000
C       -0.07493129       2.80468351       0.05435465       0.00000000
C       -1.55852784       4.75970782       0.08093855       0.00000000
C       -2.49324859       2.47882890       0.07114275       0.00000000
C       -3.04207184       6.71474713       0.08329160       0.00000000
C       -3.97676590       4.43391729       0.08721720       0.00000000
C       11.08125728       2.15314770       0.08486870       0.00000000
C       -5.46027316       6.38898949       0.06945365       0.00000000
C        9.59775000       4.10812593       0.08028265       0.00000000
C        8.66298927       1.82734473       0.08620955       0.00000000
C        1.40854124       0.84987135       0.04666900       0.00000000
C        8.11438235       6.06309366       0.05360635       0.00000000
C        7.17958961       3.78220687       0.06405000       0.00000000
C        6.24478626       1.50159579       0.07459095       0.00000000
C       14.98307181       0.52397328       0.04749115       0.00000000
C        5.69619525       5.73726746       0.04573275       0.00000000
C        4.76147922       3.45637497       0.04924290       0.00000000
C       12.56486859       0.19806868       0.05968550       0.00000000
C        3.27802206       5.41140408       0.04998140       0.00000000
C        2.34322174       3.13059927       0.04539710       0.00000000
C        1.79445667       7.36630429       0.07630735       0.00000000
C        0.85967622       5.08548367       0.06500340       0.00000000
C       -0.62372961       7.04051278       0.08633835       0.00000000
C        1.22684356       2.25964462       0.04641910       0.00000000
C       -0.25659726       4.21451643       0.06725985       0.00000000
C       -1.19132517       1.93369071       0.05685155       0.00000000
C       -1.74027201       6.16948663       0.08717625       0.00000000
C       -2.67498517       3.88863994       0.08268715       0.00000000
C       12.38316622       1.60781759       0.07368795       0.00000000
C       -4.15841277       5.84377741       0.08264970       0.00000000
C       10.89950073       3.56291123       0.08767710       0.00000000
C        9.96486924       1.28192911       0.08612870       0.00000000
C        2.71037546       0.30469682       0.05708430       0.00000000
C        9.41610300       5.51790279       0.06826855       0.00000000
C        8.48128748       3.23725828       0.07896140       0.00000000
C       -8.05991703       7.47300392       0.04693430       0.00000000
C        6.99809836       5.19203799       0.05264630       0.00000000
C        6.06323285       2.91132311       0.06216350       0.00000000
C        5.51457935       7.14712518       0.04902800       0.00000000
C        4.57988272       4.86621500       0.04556825       0.00000000
C        3.64520593       2.58548289       0.04862970       0.00000000
C        3.09634256       6.82117824       0.06199375       0.00000000
C        2.16163556       4.54029947       0.05169675       0.00000000
C        0.67801468       6.49530055       0.07828590       0.00000000
C        7.54666839       0.95637726       0.08589000       0.00000000
C        5.12837089       0.63061251       0.07336665       0.00000000
